data_175572
_audit_creation_date              2022-01-27
_audit_creation_method            'Materials Studio'
_symmetry_space_group_name_H-M    'FM-3M'
_symmetry_Int_Tables_number       225
_symmetry_cell_setting            cubic
loop_
_symmetry_equiv_pos_as_xyz
  x,y,z
  -x,-y,z
  -x,y,-z
  x,-y,-z
  z,x,y
  z,-x,-y
  -z,-x,y
  -z,x,-y
  y,z,x
  -y,z,-x
  y,-z,-x
  -y,-z,x
  y,x,-z
  -y,-x,-z
  y,-x,z
  -y,x,z
  x,z,-y
  -x,z,y
  -x,-z,-y
  x,-z,y
  z,y,-x
  z,-y,x
  -z,y,x
  -z,-y,-x
  -x,-y,-z
  x,y,-z
  x,-y,z
  -x,y,z
  -z,-x,-y
  -z,x,y
  z,x,-y
  z,-x,y
  -y,-z,-x
  y,-z,x
  -y,z,x
  y,z,-x
  -y,-x,z
  y,x,z
  -y,x,-z
  y,-x,-z
  -x,-z,y
  x,-z,-y
  x,z,y
  -x,z,-y
  -z,-y,x
  -z,y,-x
  z,-y,-x
  z,y,x
  x,y+1/2,z+1/2
  -x,-y+1/2,z+1/2
  -x,y+1/2,-z+1/2
  x,-y+1/2,-z+1/2
  z,x+1/2,y+1/2
  z,-x+1/2,-y+1/2
  -z,-x+1/2,y+1/2
  -z,x+1/2,-y+1/2
  y,z+1/2,x+1/2
  -y,z+1/2,-x+1/2
  y,-z+1/2,-x+1/2
  -y,-z+1/2,x+1/2
  y,x+1/2,-z+1/2
  -y,-x+1/2,-z+1/2
  y,-x+1/2,z+1/2
  -y,x+1/2,z+1/2
  x,z+1/2,-y+1/2
  -x,z+1/2,y+1/2
  -x,-z+1/2,-y+1/2
  x,-z+1/2,y+1/2
  z,y+1/2,-x+1/2
  z,-y+1/2,x+1/2
  -z,y+1/2,x+1/2
  -z,-y+1/2,-x+1/2
  -x,-y+1/2,-z+1/2
  x,y+1/2,-z+1/2
  x,-y+1/2,z+1/2
  -x,y+1/2,z+1/2
  -z,-x+1/2,-y+1/2
  -z,x+1/2,y+1/2
  z,x+1/2,-y+1/2
  z,-x+1/2,y+1/2
  -y,-z+1/2,-x+1/2
  y,-z+1/2,x+1/2
  -y,z+1/2,x+1/2
  y,z+1/2,-x+1/2
  -y,-x+1/2,z+1/2
  y,x+1/2,z+1/2
  -y,x+1/2,-z+1/2
  y,-x+1/2,-z+1/2
  -x,-z+1/2,y+1/2
  x,-z+1/2,-y+1/2
  x,z+1/2,y+1/2
  -x,z+1/2,-y+1/2
  -z,-y+1/2,x+1/2
  -z,y+1/2,-x+1/2
  z,-y+1/2,-x+1/2
  z,y+1/2,x+1/2
  x+1/2,y,z+1/2
  -x+1/2,-y,z+1/2
  -x+1/2,y,-z+1/2
  x+1/2,-y,-z+1/2
  z+1/2,x,y+1/2
  z+1/2,-x,-y+1/2
  -z+1/2,-x,y+1/2
  -z+1/2,x,-y+1/2
  y+1/2,z,x+1/2
  -y+1/2,z,-x+1/2
  y+1/2,-z,-x+1/2
  -y+1/2,-z,x+1/2
  y+1/2,x,-z+1/2
  -y+1/2,-x,-z+1/2
  y+1/2,-x,z+1/2
  -y+1/2,x,z+1/2
  x+1/2,z,-y+1/2
  -x+1/2,z,y+1/2
  -x+1/2,-z,-y+1/2
  x+1/2,-z,y+1/2
  z+1/2,y,-x+1/2
  z+1/2,-y,x+1/2
  -z+1/2,y,x+1/2
  -z+1/2,-y,-x+1/2
  -x+1/2,-y,-z+1/2
  x+1/2,y,-z+1/2
  x+1/2,-y,z+1/2
  -x+1/2,y,z+1/2
  -z+1/2,-x,-y+1/2
  -z+1/2,x,y+1/2
  z+1/2,x,-y+1/2
  z+1/2,-x,y+1/2
  -y+1/2,-z,-x+1/2
  y+1/2,-z,x+1/2
  -y+1/2,z,x+1/2
  y+1/2,z,-x+1/2
  -y+1/2,-x,z+1/2
  y+1/2,x,z+1/2
  -y+1/2,x,-z+1/2
  y+1/2,-x,-z+1/2
  -x+1/2,-z,y+1/2
  x+1/2,-z,-y+1/2
  x+1/2,z,y+1/2
  -x+1/2,z,-y+1/2
  -z+1/2,-y,x+1/2
  -z+1/2,y,-x+1/2
  z+1/2,-y,-x+1/2
  z+1/2,y,x+1/2
  x+1/2,y+1/2,z
  -x+1/2,-y+1/2,z
  -x+1/2,y+1/2,-z
  x+1/2,-y+1/2,-z
  z+1/2,x+1/2,y
  z+1/2,-x+1/2,-y
  -z+1/2,-x+1/2,y
  -z+1/2,x+1/2,-y
  y+1/2,z+1/2,x
  -y+1/2,z+1/2,-x
  y+1/2,-z+1/2,-x
  -y+1/2,-z+1/2,x
  y+1/2,x+1/2,-z
  -y+1/2,-x+1/2,-z
  y+1/2,-x+1/2,z
  -y+1/2,x+1/2,z
  x+1/2,z+1/2,-y
  -x+1/2,z+1/2,y
  -x+1/2,-z+1/2,-y
  x+1/2,-z+1/2,y
  z+1/2,y+1/2,-x
  z+1/2,-y+1/2,x
  -z+1/2,y+1/2,x
  -z+1/2,-y+1/2,-x
  -x+1/2,-y+1/2,-z
  x+1/2,y+1/2,-z
  x+1/2,-y+1/2,z
  -x+1/2,y+1/2,z
  -z+1/2,-x+1/2,-y
  -z+1/2,x+1/2,y
  z+1/2,x+1/2,-y
  z+1/2,-x+1/2,y
  -y+1/2,-z+1/2,-x
  y+1/2,-z+1/2,x
  -y+1/2,z+1/2,x
  y+1/2,z+1/2,-x
  -y+1/2,-x+1/2,z
  y+1/2,x+1/2,z
  -y+1/2,x+1/2,-z
  y+1/2,-x+1/2,-z
  -x+1/2,-z+1/2,y
  x+1/2,-z+1/2,-y
  x+1/2,z+1/2,y
  -x+1/2,z+1/2,-y
  -z+1/2,-y+1/2,x
  -z+1/2,y+1/2,-x
  z+1/2,-y+1/2,-x
  z+1/2,y+1/2,x
_cell_length_a                    25.8320
_cell_length_b                    25.8320
_cell_length_c                    25.8320
_cell_angle_alpha                 90.0000
_cell_angle_beta                  90.0000
_cell_angle_gamma                 90.0000
loop_
_atom_site_label
_atom_site_type_symbol
_atom_site_fract_x
_atom_site_fract_y
_atom_site_fract_z
_atom_site_U_iso_or_equiv
_atom_site_adp_type
_atom_site_occupancy
Zn     Zn    0.29338   0.20662   0.20662   0.04150  Uani   1.00
O1C    O     0.25000   0.25000   0.25000   0.03100  Uani   1.00
O1     O     0.28187   0.21813   0.13400   0.07767  Uani   1.00
C3     C     0.28290   0.21710   0.02690   0.10567  Uani   1.00
H3     H     0.30490   0.19510   0.04480   0.12700  Uiso   1.00
C1     C     0.25000   0.25000   0.11130   0.07033  Uani   1.00
C2     C     0.25000   0.25000   0.05380   0.07533  Uani   1.00
loop_
_atom_site_aniso_label
_atom_site_aniso_U_11
_atom_site_aniso_U_22
_atom_site_aniso_U_33
_atom_site_aniso_U_12
_atom_site_aniso_U_13
_atom_site_aniso_U_23
Zn        0.04150   0.04150   0.04150   0.00040   0.00040  -0.00040
O1C       0.03100   0.03100   0.03100   0.00000   0.00000   0.00000
O1        0.09600   0.09600   0.04100   0.01700  -0.00210   0.00210
C3        0.14000   0.14000   0.03700   0.05300   0.00200  -0.00200
C1        0.08900   0.08900   0.03300   0.00200   0.00000   0.00000
C2        0.09500   0.09500   0.03600   0.01600   0.00000   0.00000
loop_
_geom_bond_atom_site_label_1
_geom_bond_atom_site_label_2
_geom_bond_distance
_geom_bond_site_symmetry_2
_ccdc_geom_bond_type
Zn     O1      1.922   .     S
Zn     O1      1.922   43    S
Zn     O1      1.922   142   S
Zn     O1C     1.941   .     S
O1C    Zn      1.941   5     S
O1C    Zn      1.941   9     S
O1C    Zn      1.941   52    S
O1     C1      1.304   .     S
C3     C2      1.388   .     S
C3     C3      1.390   26    S
C1     O1      1.304   38    S
C1     C2      1.485   .     S
C2     C3      1.388   38    S
